data_HKUST-1
_audit_creation_date              2020-05-06
_audit_creation_method            'Materials Studio'
_symmetry_space_group_name_H-M    'FM-3M'
_symmetry_Int_Tables_number       225
_symmetry_cell_setting            cubic
loop_
_symmetry_equiv_pos_as_xyz
  x,y,z
  -x,-y,z
  -x,y,-z
  x,-y,-z
  z,x,y
  z,-x,-y
  -z,-x,y
  -z,x,-y
  y,z,x
  -y,z,-x
  y,-z,-x
  -y,-z,x
  y,x,-z
  -y,-x,-z
  y,-x,z
  -y,x,z
  x,z,-y
  -x,z,y
  -x,-z,-y
  x,-z,y
  z,y,-x
  z,-y,x
  -z,y,x
  -z,-y,-x
  -x,-y,-z
  x,y,-z
  x,-y,z
  -x,y,z
  -z,-x,-y
  -z,x,y
  z,x,-y
  z,-x,y
  -y,-z,-x
  y,-z,x
  -y,z,x
  y,z,-x
  -y,-x,z
  y,x,z
  -y,x,-z
  y,-x,-z
  -x,-z,y
  x,-z,-y
  x,z,y
  -x,z,-y
  -z,-y,x
  -z,y,-x
  z,-y,-x
  z,y,x
  x,y+1/2,z+1/2
  -x,-y+1/2,z+1/2
  -x,y+1/2,-z+1/2
  x,-y+1/2,-z+1/2
  z,x+1/2,y+1/2
  z,-x+1/2,-y+1/2
  -z,-x+1/2,y+1/2
  -z,x+1/2,-y+1/2
  y,z+1/2,x+1/2
  -y,z+1/2,-x+1/2
  y,-z+1/2,-x+1/2
  -y,-z+1/2,x+1/2
  y,x+1/2,-z+1/2
  -y,-x+1/2,-z+1/2
  y,-x+1/2,z+1/2
  -y,x+1/2,z+1/2
  x,z+1/2,-y+1/2
  -x,z+1/2,y+1/2
  -x,-z+1/2,-y+1/2
  x,-z+1/2,y+1/2
  z,y+1/2,-x+1/2
  z,-y+1/2,x+1/2
  -z,y+1/2,x+1/2
  -z,-y+1/2,-x+1/2
  -x,-y+1/2,-z+1/2
  x,y+1/2,-z+1/2
  x,-y+1/2,z+1/2
  -x,y+1/2,z+1/2
  -z,-x+1/2,-y+1/2
  -z,x+1/2,y+1/2
  z,x+1/2,-y+1/2
  z,-x+1/2,y+1/2
  -y,-z+1/2,-x+1/2
  y,-z+1/2,x+1/2
  -y,z+1/2,x+1/2
  y,z+1/2,-x+1/2
  -y,-x+1/2,z+1/2
  y,x+1/2,z+1/2
  -y,x+1/2,-z+1/2
  y,-x+1/2,-z+1/2
  -x,-z+1/2,y+1/2
  x,-z+1/2,-y+1/2
  x,z+1/2,y+1/2
  -x,z+1/2,-y+1/2
  -z,-y+1/2,x+1/2
  -z,y+1/2,-x+1/2
  z,-y+1/2,-x+1/2
  z,y+1/2,x+1/2
  x+1/2,y,z+1/2
  -x+1/2,-y,z+1/2
  -x+1/2,y,-z+1/2
  x+1/2,-y,-z+1/2
  z+1/2,x,y+1/2
  z+1/2,-x,-y+1/2
  -z+1/2,-x,y+1/2
  -z+1/2,x,-y+1/2
  y+1/2,z,x+1/2
  -y+1/2,z,-x+1/2
  y+1/2,-z,-x+1/2
  -y+1/2,-z,x+1/2
  y+1/2,x,-z+1/2
  -y+1/2,-x,-z+1/2
  y+1/2,-x,z+1/2
  -y+1/2,x,z+1/2
  x+1/2,z,-y+1/2
  -x+1/2,z,y+1/2
  -x+1/2,-z,-y+1/2
  x+1/2,-z,y+1/2
  z+1/2,y,-x+1/2
  z+1/2,-y,x+1/2
  -z+1/2,y,x+1/2
  -z+1/2,-y,-x+1/2
  -x+1/2,-y,-z+1/2
  x+1/2,y,-z+1/2
  x+1/2,-y,z+1/2
  -x+1/2,y,z+1/2
  -z+1/2,-x,-y+1/2
  -z+1/2,x,y+1/2
  z+1/2,x,-y+1/2
  z+1/2,-x,y+1/2
  -y+1/2,-z,-x+1/2
  y+1/2,-z,x+1/2
  -y+1/2,z,x+1/2
  y+1/2,z,-x+1/2
  -y+1/2,-x,z+1/2
  y+1/2,x,z+1/2
  -y+1/2,x,-z+1/2
  y+1/2,-x,-z+1/2
  -x+1/2,-z,y+1/2
  x+1/2,-z,-y+1/2
  x+1/2,z,y+1/2
  -x+1/2,z,-y+1/2
  -z+1/2,-y,x+1/2
  -z+1/2,y,-x+1/2
  z+1/2,-y,-x+1/2
  z+1/2,y,x+1/2
  x+1/2,y+1/2,z
  -x+1/2,-y+1/2,z
  -x+1/2,y+1/2,-z
  x+1/2,-y+1/2,-z
  z+1/2,x+1/2,y
  z+1/2,-x+1/2,-y
  -z+1/2,-x+1/2,y
  -z+1/2,x+1/2,-y
  y+1/2,z+1/2,x
  -y+1/2,z+1/2,-x
  y+1/2,-z+1/2,-x
  -y+1/2,-z+1/2,x
  y+1/2,x+1/2,-z
  -y+1/2,-x+1/2,-z
  y+1/2,-x+1/2,z
  -y+1/2,x+1/2,z
  x+1/2,z+1/2,-y
  -x+1/2,z+1/2,y
  -x+1/2,-z+1/2,-y
  x+1/2,-z+1/2,y
  z+1/2,y+1/2,-x
  z+1/2,-y+1/2,x
  -z+1/2,y+1/2,x
  -z+1/2,-y+1/2,-x
  -x+1/2,-y+1/2,-z
  x+1/2,y+1/2,-z
  x+1/2,-y+1/2,z
  -x+1/2,y+1/2,z
  -z+1/2,-x+1/2,-y
  -z+1/2,x+1/2,y
  z+1/2,x+1/2,-y
  z+1/2,-x+1/2,y
  -y+1/2,-z+1/2,-x
  y+1/2,-z+1/2,x
  -y+1/2,z+1/2,x
  y+1/2,z+1/2,-x
  -y+1/2,-x+1/2,z
  y+1/2,x+1/2,z
  -y+1/2,x+1/2,-z
  y+1/2,-x+1/2,-z
  -x+1/2,-z+1/2,y
  x+1/2,-z+1/2,-y
  x+1/2,z+1/2,y
  -x+1/2,z+1/2,-y
  -z+1/2,-y+1/2,x
  -z+1/2,y+1/2,-x
  z+1/2,-y+1/2,-x
  z+1/2,y+1/2,x
_cell_length_a                    26.2879
_cell_length_b                    26.2879
_cell_length_c                    26.2879
_cell_angle_alpha                 90.0000
_cell_angle_beta                  90.0000
_cell_angle_gamma                 90.0000
loop_
_atom_site_label
_atom_site_type_symbol
_atom_site_fract_x
_atom_site_fract_y
_atom_site_fract_z
_atom_site_U_iso_or_equiv
_atom_site_adp_type
_atom_site_occupancy
O11    O     0.31487   0.24460  -0.05024   0.01111  Uiso   1.00
Cu1    Cu    0.27869   0.27869   0.00000   0.00330  Uiso   1.00
C1     C     0.32279   0.17721  -0.11136   0.00732  Uiso   1.00
C10    C     0.29687   0.20313  -0.06834   0.00993  Uiso   1.00
C2     C     0.36666   0.19855  -0.13334   0.01122  Uiso   1.00
H1     H     0.38272   0.23293  -0.11728   0.02832  Uiso   1.00
loop_
_geom_bond_atom_site_label_1
_geom_bond_atom_site_label_2
_geom_bond_distance
_geom_bond_site_symmetry_2
_ccdc_geom_bond_type
O11    Cu1     1.858   .     S
O11    C10     1.280   .     A
Cu1    O11     1.858   13    S
Cu1    O11     1.858   26    S
Cu1    O11     1.858   38    S
Cu1    Cu1     2.134   146   S
C1     C10     1.486   .     S
C1     C2      1.407   .     A
C1     C2      1.407   108_554 A
C10    O11     1.280   181   A
C2     C1      1.407   144_554 A
C2     H1      1.083   .     S
