data_MOF-505
_audit_creation_date              2020-05-06
_audit_creation_method            'Materials Studio'
_symmetry_space_group_name_H-M    'R-3M'
_symmetry_Int_Tables_number       166
_symmetry_cell_setting            trigonal
loop_
_symmetry_equiv_pos_as_xyz
  x,y,z
  -y,x-y,z
  -x+y,-x,z
  y,x,-z
  x-y,-y,-z
  -x,-x+y,-z
  -x,-y,-z
  y,-x+y,-z
  x-y,x,-z
  -y,-x,z
  -x+y,y,z
  x,x-y,z
  x+2/3,y+1/3,z+1/3
  -y+2/3,x-y+1/3,z+1/3
  -x+y+2/3,-x+1/3,z+1/3
  y+2/3,x+1/3,-z+1/3
  x-y+2/3,-y+1/3,-z+1/3
  -x+2/3,-x+y+1/3,-z+1/3
  -x+2/3,-y+1/3,-z+1/3
  y+2/3,-x+y+1/3,-z+1/3
  x-y+2/3,x+1/3,-z+1/3
  -y+2/3,-x+1/3,z+1/3
  -x+y+2/3,y+1/3,z+1/3
  x+2/3,x-y+1/3,z+1/3
  x+1/3,y+2/3,z+2/3
  -y+1/3,x-y+2/3,z+2/3
  -x+y+1/3,-x+2/3,z+2/3
  y+1/3,x+2/3,-z+2/3
  x-y+1/3,-y+2/3,-z+2/3
  -x+1/3,-x+y+2/3,-z+2/3
  -x+1/3,-y+2/3,-z+2/3
  y+1/3,-x+y+2/3,-z+2/3
  x-y+1/3,x+2/3,-z+2/3
  -y+1/3,-x+2/3,z+2/3
  -x+y+1/3,y+2/3,z+2/3
  x+1/3,x-y+2/3,z+2/3
_cell_length_a                    18.4826
_cell_length_b                    18.4826
_cell_length_c                    24.7130
_cell_angle_alpha                 90.0000
_cell_angle_beta                  90.0000
_cell_angle_gamma                 120.0000
loop_
_atom_site_label
_atom_site_type_symbol
_atom_site_fract_x
_atom_site_fract_y
_atom_site_fract_z
_atom_site_U_iso_or_equiv
_atom_site_adp_type
_atom_site_occupancy
O1     O     0.81549   0.04266   0.15950   0.04529  Uani   1.00
O2     O     0.74898   0.11093   0.09974   0.04330  Uani   1.00
C1     C     0.78432   0.02662   0.20707   0.03721  Uani   1.00
C2     C     0.71381  -0.07781   0.28091   0.05094  Uani   1.00
H2     H     0.69938  -0.03313   0.29800   0.06100  Uiso   1.00
C4     C     0.75756  -0.05565   0.23175   0.04352  Uani   1.00
Cu1    Cu    0.85283   0.14717   0.13006   0.02538  Uani   1.00
C3     C     0.69034  -0.15483   0.30672   0.05502  Uani   1.00
C5     C     0.77837  -0.11082   0.20715   0.04084  Uani   1.00
H5     H     0.81308  -0.09346   0.16951   0.04900  Uiso   1.00
loop_
_atom_site_aniso_label
_atom_site_aniso_U_11
_atom_site_aniso_U_22
_atom_site_aniso_U_33
_atom_site_aniso_U_12
_atom_site_aniso_U_13
_atom_site_aniso_U_23
O1        0.06310   0.03400   0.04800   0.03120   0.01700   0.00930
O2        0.03270   0.05600   0.04750   0.02690  -0.01130  -0.01680
C1        0.03440   0.03050   0.05070   0.01920   0.00520   0.00600
C2        0.06780   0.03680   0.06030   0.03520   0.02790   0.01570
C4        0.04840   0.03300   0.05470   0.02450   0.01590   0.01120
Cu1       0.02659   0.02659   0.02760   0.01678   0.00086  -0.00086
C3        0.07300   0.04230   0.06000   0.03650   0.03000   0.01500
C5        0.04100   0.03390   0.05000   0.02050   0.00890   0.00445
loop_
_geom_bond_atom_site_label_1
_geom_bond_atom_site_label_2
_geom_bond_distance
_geom_bond_site_symmetry_2
_ccdc_geom_bond_type
O1     Cu1     1.845   .     S
O1     C1      1.277   .     A
O2     Cu1     1.846   .     S
O2     C1      1.278   16_545 A
C1     C4      1.475   .     S
C1     O2      1.278   16_545 A
C2     C4      1.402   .     A
C2     C3      1.416   .     A
C2     H2      1.073   .     S
C4     C5      1.396   .     A
Cu1    O1      1.845   10_665 S
Cu1    O2      1.846   10_665 S
Cu1    Cu1     2.198   16_545 S
C3     C2      1.416   12_545 A
C3     C3      1.518   30_655 S
C5     C4      1.396   12_545 A
C5     H5      1.083   .     S
