data_UTSA-74
_audit_creation_date              2020-05-06
_audit_creation_method            'Materials Studio'
_symmetry_space_group_name_H-M    'P1'
_symmetry_Int_Tables_number       1
_symmetry_cell_setting            triclinic
loop_
_symmetry_equiv_pos_as_xyz
  x,y,z
_cell_length_a                    14.2710
_cell_length_b                    14.2710
_cell_length_c                    14.2710
_cell_angle_alpha                 107.0499
_cell_angle_beta                  107.0499
_cell_angle_gamma                 107.0499
loop_
_atom_site_label
_atom_site_type_symbol
_atom_site_fract_x
_atom_site_fract_y
_atom_site_fract_z
_atom_site_U_iso_or_equiv
_atom_site_adp_type
_atom_site_occupancy
O1     O     0.62551   0.16315   0.20563   0.09533  Uani   1.00
O2     O     0.71635   0.23355   0.45286   0.08078  Uani   1.00
C3     C     0.56615   0.08834   1.00669   0.04822  Uani   1.00
O4     O     0.74104   0.40545   0.24754   0.07544  Uani   1.00
C5     C     0.47950   0.98548   0.09221   0.06189  Uani   1.00
H6     H     0.47398   0.98057   0.16485   0.07500  Uiso   1.00
C7     C     0.56212   0.07728   0.10234   0.09300  Uani   1.00
C8     C     0.69898   0.21612   0.53230   0.07044  Uani   1.00
O9     O     0.21805   0.65721   0.19118   0.09533  Uani   1.00
O10    O     0.41144   0.65334   0.15843   0.08078  Uani   1.00
C11    C     1.02129   0.60998   0.12117   0.04822  Uani   1.00
O12    O     0.26191   0.77793   0.42030   0.07544  Uani   1.00
C13    C     0.10040   0.50456   1.02674   0.06189  Uani   1.00
H14    H     0.17343   0.49701   1.02508   0.07500  Uiso   1.00
C15    C     0.11298   0.59387   0.11127   0.09300  Uani   1.00
C16    C     0.50451   0.65770   0.16374   0.07044  Uani   1.00
O17    O     0.13861   0.19116   0.64721   0.09533  Uani   1.00
O18    O     0.15143   0.40250   0.67803   0.08078  Uani   1.00
C19    C     0.06963   0.99327   0.58361   0.04822  Uani   1.00
O20    O     0.38626   0.24760   0.71171   0.07544  Uani   1.00
C21    C     0.96452   0.07960   0.50152   0.06189  Uani   1.00
H22    H     0.95852   0.15374   0.50200   0.07500  Uiso   1.00
C23    C     0.05521   0.08798   0.58327   0.09300  Uani   1.00
C24    C     0.16856   0.49410   0.67265   0.07044  Uani   1.00
Zn25   Zn    0.24270   0.77929   0.29285   0.07403  Uani   1.00
O26    O     0.37142   0.87128   0.30368   0.09533  Uani   1.00
O27    O     0.32228   0.78329   0.06586   0.08078  Uani   1.00
C28    C     0.44263   0.92692   0.50226   0.04822  Uani   1.00
O29    O     0.12463   0.80042   0.24583   0.07544  Uani   1.00
C30    C     0.54454   1.02478   0.42044   0.06189  Uani   1.00
H31    H     0.54810   1.03394   0.34903   0.07500  Uiso   1.00
C32    C     0.45537   0.93502   0.40800   0.09300  Uani   1.00
C33    C     0.30970   0.80989  -0.01424   0.07044  Uani   1.00
Zn34   Zn    0.73808   0.27450   0.21379   0.07403  Uani   1.00
O35    O     0.85153   0.28238   0.32096   0.09533  Uani   1.00
O36    O     0.78397   0.06667   0.33490   0.08078  Uani   1.00
C37    C     0.92125   0.48221   0.39204   0.04822  Uani   1.00
O38    O     0.73933   0.24368   0.08532   0.07544  Uani   1.00
C39    C     1.00661   0.39438   0.49203   0.06189  Uani   1.00
H40    H     1.00746   0.32008   0.49566   0.07500  Uiso   1.00
C41    C     0.92224   0.38609   0.40329   0.09300  Uani   1.00
C42    C     0.80218  -0.01847   0.32248   0.07044  Uani   1.00
Zn43   Zn    0.26822   0.20497   0.73455   0.07403  Uani   1.00
O44    O     0.29325   0.31727   0.85042   0.09533  Uani   1.00
O45    O     0.09597   0.35270   0.84997   0.08078  Uani   1.00
C46    C     0.48942   0.39182   0.89505   0.04822  Uani   1.00
O47    O     0.24821   0.07620   0.73634   0.07544  Uani   1.00
C48    C     0.40902   0.48298   1.00147   0.06189  Uani   1.00
H49    H     0.33574   0.48082   1.01038   0.07500  Uiso   1.00
C50    C     0.39699   0.39927   0.91145   0.09300  Uani   1.00
C51    C     0.00335   0.34602   0.84861   0.07044  Uani   1.00
Zn52   Zn    0.23976   0.70915   0.77549   0.07403  Uani   1.00
O53    O     0.35054   0.82656   0.79558   0.09533  Uani   1.00
O54    O     0.34636   0.85232   0.59658   0.08078  Uani   1.00
C55    C     0.40052   0.90209  -0.00911   0.04822  Uani   1.00
O56    O     0.24361   0.57986   0.75225   0.07544  Uani   1.00
C57    C     0.48710   0.00554   0.90634   0.06189  Uani   1.00
H58    H     0.49035   0.00912   0.83274   0.07500  Uiso   1.00
C59    C     0.40759   0.91338   0.89707   0.09300  Uani   1.00
C60    C     0.34592   0.84584   0.50426   0.07044  Uani   1.00
Zn61   Zn    0.79273   0.28064   0.74366   0.07403  Uani   1.00
O62    O     0.80259   0.38035   0.86658   0.09533  Uani   1.00
O63    O     0.56058   0.30298   0.77179   0.08078  Uani   1.00
C64    C    -0.00008   0.42758   0.94357   0.04822  Uani   1.00
O65    O     0.75072   0.29862   0.62385   0.07544  Uani   1.00
C66    C     0.91866   0.52961   0.04175   0.06189  Uani   1.00
H67    H     0.84822   0.54253   0.04303   0.07500  Uiso   1.00
C68    C     0.90556   0.43934   0.95332   0.09300  Uani   1.00
C69    C     0.47870   0.31005   0.79023   0.07044  Uani   1.00
Zn70   Zn    0.71341   0.76940   0.23142   0.07403  Uani   1.00
O71    O     0.81912   0.78058   0.34647   0.09533  Uani   1.00
O72    O     0.84742   0.57291   0.29129   0.08078  Uani   1.00
C73    C     0.88706  -0.01986   0.41486   0.04822  Uani   1.00
O74    O     0.58758   0.73921   0.23648   0.07544  Uani   1.00
C75    C    -0.01133   0.89318   0.50019   0.06189  Uani   1.00
H76    H    -0.00639   0.81918   0.50002   0.07500  Uiso   1.00
C77    C     0.90000   0.88490   0.41650   0.09300  Uani   1.00
C78    C     0.83159   0.48597   0.30645   0.07044  Uani   1.00
O79    O     0.68719   0.16181   0.72218   0.09533  Uani   1.00
O80    O     0.63439   0.19123   0.91481   0.08078  Uani   1.00
C81    C     0.62167   0.10848   0.52289   0.04822  Uani   1.00
O82    O     0.91954   0.27683   0.76499   0.07544  Uani   1.00
C83    C     0.52420   0.00650   0.60294   0.06189  Uani   1.00
H84    H     0.52116   0.00169   0.67634   0.07500  Uiso   1.00
C85    C     0.60970   0.09569   0.61556   0.09300  Uani   1.00
C86    C     0.65196   0.17895   1.00349   0.07044  Uani   1.00
O87    O     0.14720   0.69223   0.64704   0.09533  Uani   1.00
O88    O     0.17073   0.89920   0.64744   0.08078  Uani   1.00
C89    C     0.08852   0.49481   0.57505   0.04822  Uani   1.00
O90    O     0.22353   0.74908   0.89906   0.07544  Uani   1.00
C91    C     0.00670   0.58119   0.47105   0.06189  Uani   1.00
H92    H     0.00670   0.65535   0.46592   0.07500  Uiso   1.00
C93    C     0.08682   0.58971   0.56236   0.09300  Uani   1.00
C94    C     0.16734   0.99138   0.66291   0.07044  Uani   1.00
O95    O     0.70534   0.65312   0.12138   0.09533  Uani   1.00
O96    O     0.95547   0.73675   0.21849   0.08078  Uani   1.00
C97    C     0.50912   0.56729   0.07810   0.04822  Uani   1.00
O98    O     0.74591   0.89979   0.23214   0.07544  Uani   1.00
C99    C     0.59122   0.47576  -0.02724   0.06189  Uani   1.00
H100   H     0.66171   0.47616  -0.04152   0.07500  Uiso   1.00
C101   C     0.60374   0.56334   0.06315   0.09300  Uani   1.00
C102   C     1.03293   0.71870   0.19731   0.07044  Uani   1.00
Zn103  Zn    0.73859   0.17578   0.32889   0.06972  Uani   1.00
Zn104  Zn    0.34048   0.74482   0.18169   0.06972  Uani   1.00
Zn105  Zn    0.16630   0.32141   0.75910   0.06972  Uani   1.00
Zn106  Zn    0.25526   0.82207   0.66682   0.06972  Uani   1.00
Zn107  Zn    0.67072   0.26340   0.83068   0.06972  Uani   1.00
Zn108  Zn    0.83160   0.67478   0.23779   0.06972  Uani   1.00
loop_
_atom_site_aniso_label
_atom_site_aniso_U_11
_atom_site_aniso_U_22
_atom_site_aniso_U_33
_atom_site_aniso_U_12
_atom_site_aniso_U_13
_atom_site_aniso_U_23
O1        0.09856   0.07341   0.04766  -0.01934  -0.01701   0.04181
O2        0.07337   0.05074   0.02889  -0.02474  -0.02045  -0.00661
C3        0.04492   0.02658   0.03556  -0.00736   0.00708  -0.00385
O4        0.09699   0.05934   0.04705   0.02238   0.00687   0.02550
C5        0.05323   0.05089   0.03314  -0.00860   0.00184   0.00125
C7        0.08718   0.06377   0.05089   0.01052  -0.02927   0.00291
C8        0.04434   0.07458   0.06697   0.02123   0.02737  -0.00432
O9        0.04766   0.09856   0.07341  -0.01701   0.04181  -0.01934
O10       0.02889   0.07337   0.05074  -0.02045  -0.00661  -0.02474
C11       0.03556   0.04492   0.02658   0.00708  -0.00385  -0.00736
O12       0.04705   0.09699   0.05934   0.00687   0.02550   0.02238
C13       0.03314   0.05323   0.05089   0.00184   0.00125  -0.00860
C15       0.05089   0.08718   0.06377  -0.02927   0.00291   0.01052
C16       0.06697   0.04434   0.07458   0.02737  -0.00432   0.02123
O17       0.07341   0.04766   0.09856   0.04181  -0.01934  -0.01701
O18       0.05074   0.02889   0.07337  -0.00661  -0.02474  -0.02045
C19       0.02658   0.03556   0.04492  -0.00385  -0.00736   0.00708
O20       0.05934   0.04705   0.09699   0.02550   0.02238   0.00687
C21       0.05089   0.03314   0.05323   0.00125  -0.00860   0.00184
C23       0.06377   0.05089   0.08718   0.00291   0.01052  -0.02927
C24       0.07458   0.06697   0.04434  -0.00432   0.02123   0.02737
Zn25      0.04409   0.08517   0.05011   0.00611   0.01059   0.00257
O26       0.07341   0.09856   0.04766  -0.01934   0.04181  -0.01701
O27       0.05074   0.07337   0.02889  -0.02474  -0.00661  -0.02045
C28       0.02658   0.04492   0.03556  -0.00736  -0.00385   0.00708
O29       0.05934   0.09699   0.04705   0.02238   0.02550   0.00687
C30       0.05089   0.05323   0.03314  -0.00860   0.00125   0.00184
C32       0.06377   0.08718   0.05089   0.01052   0.00291  -0.02927
C33       0.07458   0.04434   0.06697   0.02123  -0.00432   0.02737
Zn34      0.08517   0.05011   0.04409   0.00257   0.00611   0.01059
O35       0.09856   0.04766   0.07341  -0.01701  -0.01934   0.04181
O36       0.07337   0.02889   0.05074  -0.02045  -0.02474  -0.00661
C37       0.04492   0.03556   0.02658   0.00708  -0.00736  -0.00385
O38       0.09699   0.04705   0.05934   0.00687   0.02238   0.02550
C39       0.05323   0.03314   0.05089   0.00184  -0.00860   0.00125
C41       0.08718   0.05089   0.06377  -0.02927   0.01052   0.00291
C42       0.04434   0.06697   0.07458   0.02737   0.02123  -0.00432
Zn43      0.05011   0.04409   0.08517   0.01059   0.00257   0.00611
O44       0.04766   0.07341   0.09856   0.04181  -0.01701  -0.01934
O45       0.02889   0.05074   0.07337  -0.00661  -0.02045  -0.02474
C46       0.03556   0.02658   0.04492  -0.00385   0.00708  -0.00736
O47       0.04705   0.05934   0.09699   0.02550   0.00687   0.02238
C48       0.03314   0.05089   0.05323   0.00125   0.00184  -0.00860
C50       0.05089   0.06377   0.08718   0.00291  -0.02927   0.01052
C51       0.06697   0.07458   0.04434  -0.00432   0.02737   0.02123
Zn52      0.08517   0.04409   0.05011   0.00611   0.00257   0.01059
O53       0.09856   0.07341   0.04766  -0.01934  -0.01701   0.04181
O54       0.07337   0.05074   0.02889  -0.02474  -0.02045  -0.00661
C55       0.04492   0.02658   0.03556  -0.00736   0.00708  -0.00385
O56       0.09699   0.05934   0.04705   0.02238   0.00687   0.02550
C57       0.05323   0.05089   0.03314  -0.00860   0.00184   0.00125
C59       0.08718   0.06377   0.05089   0.01052  -0.02927   0.00291
C60       0.04434   0.07458   0.06697   0.02123   0.02737  -0.00432
Zn61      0.05011   0.08517   0.04409   0.00257   0.01059   0.00611
O62       0.04766   0.09856   0.07341  -0.01701   0.04181  -0.01934
O63       0.02889   0.07337   0.05074  -0.02045  -0.00661  -0.02474
C64       0.03556   0.04492   0.02658   0.00708  -0.00385  -0.00736
O65       0.04705   0.09699   0.05934   0.00687   0.02550   0.02238
C66       0.03314   0.05323   0.05089   0.00184   0.00125  -0.00860
C68       0.05089   0.08718   0.06377  -0.02927   0.00291   0.01052
C69       0.06697   0.04434   0.07458   0.02737  -0.00432   0.02123
Zn70      0.04409   0.05011   0.08517   0.01059   0.00611   0.00257
O71       0.07341   0.04766   0.09856   0.04181  -0.01934  -0.01701
O72       0.05074   0.02889   0.07337  -0.00661  -0.02474  -0.02045
C73       0.02658   0.03556   0.04492  -0.00385  -0.00736   0.00708
O74       0.05934   0.04705   0.09699   0.02550   0.02238   0.00687
C75       0.05089   0.03314   0.05323   0.00125  -0.00860   0.00184
C77       0.06377   0.05089   0.08718   0.00291   0.01052  -0.02927
C78       0.07458   0.06697   0.04434  -0.00432   0.02123   0.02737
O79       0.07341   0.09856   0.04766  -0.01934   0.04181  -0.01701
O80       0.05074   0.07337   0.02889  -0.02474  -0.00661  -0.02045
C81       0.02658   0.04492   0.03556  -0.00736  -0.00385   0.00708
O82       0.05934   0.09699   0.04705   0.02238   0.02550   0.00687
C83       0.05089   0.05323   0.03314  -0.00860   0.00125   0.00184
C85       0.06377   0.08718   0.05089   0.01052   0.00291  -0.02927
C86       0.07458   0.04434   0.06697   0.02123  -0.00432   0.02737
O87       0.09856   0.04766   0.07341  -0.01701  -0.01934   0.04181
O88       0.07337   0.02889   0.05074  -0.02045  -0.02474  -0.00661
C89       0.04492   0.03556   0.02658   0.00708  -0.00736  -0.00385
O90       0.09699   0.04705   0.05934   0.00687   0.02238   0.02550
C91       0.05323   0.03314   0.05089   0.00184  -0.00860   0.00125
C93       0.08718   0.05089   0.06377  -0.02927   0.01052   0.00291
C94       0.04434   0.06697   0.07458   0.02737   0.02123  -0.00432
O95       0.04766   0.07341   0.09856   0.04181  -0.01701  -0.01934
O96       0.02889   0.05074   0.07337  -0.00661  -0.02045  -0.02474
C97       0.03556   0.02658   0.04492  -0.00385   0.00708  -0.00736
O98       0.04705   0.05934   0.09699   0.02550   0.00687   0.02238
C99       0.03314   0.05089   0.05323   0.00125   0.00184  -0.00860
C101      0.05089   0.06377   0.08718   0.00291  -0.02927   0.01052
C102      0.06697   0.07458   0.04434  -0.00432   0.02737   0.02123
Zn103     0.05556   0.05190   0.05190  -0.01056  -0.01056   0.02295
Zn104     0.05190   0.05556   0.05190  -0.01056   0.02295  -0.01056
Zn105     0.05190   0.05190   0.05556   0.02295  -0.01056  -0.01056
Zn106     0.05556   0.05190   0.05190  -0.01056  -0.01056   0.02295
Zn107     0.05190   0.05556   0.05190  -0.01056   0.02295  -0.01056
Zn108     0.05190   0.05190   0.05556   0.02295  -0.01056  -0.01056
loop_
_geom_bond_atom_site_label_1
_geom_bond_atom_site_label_2
_geom_bond_distance
_geom_bond_site_symmetry_2
_ccdc_geom_bond_type
O1     Zn103   1.926   .     S
O1     C7      1.415   .     S
O1     Zn34    1.845   .     S
O2     Zn103   1.881   .     S
O2     C8      1.305   .     A
C3     C7      1.435   1_556 A
C3     C57     1.414   .     A
C3     C86     1.521   .     S
O4     Zn34    1.772   .     S
O4     C78     1.274   .     A
C5     C7      1.418   1_565 A
C5     H6      1.083   .     S
C5     C55     1.423   .     A
C7     C3      1.435   1_554 A
C7     C5      1.418   1_545 A
C8     C81     1.547   .     S
C8     O65     1.289   .     A
O9     Zn104   1.895   .     S
O9     C15     1.401   .     S
O9     Zn25    1.767   .     S
O10    Zn104   1.886   .     S
O10    C16     1.290   .     A
C11    C15     1.432   1_655 A
C11    C66     1.423   .     A
C11    C102    1.539   .     S
O12    Zn25    1.765   .     S
O12    C60     1.268   .     A
C13    C15     1.396   1_556 A
C13    H14     1.085   .     S
C13    C64     1.409   .     A
C15    C11     1.432   1_455 A
C15    C13     1.396   1_554 A
C16    C97     1.528   .     S
C16    O74     1.264   .     A
O17    Zn105   1.903   .     S
O17    C23     1.402   .     S
O17    Zn43    1.818   .     S
O18    Zn105   1.873   .     S
O18    C24     1.287   .     A
C19    C23     1.427   1_565 A
C19    C75     1.422   .     A
C19    C94     1.530   .     S
O20    Zn43    1.775   .     S
O20    C69     1.284   .     A
C21    C23     1.412   1_655 A
C21    H22     1.084   .     S
C21    C73     1.420   .     A
C23    C19     1.427   1_545 A
C23    C21     1.412   1_455 A
C24    C89     1.525   .     S
C24    O56     1.280   .     A
Zn25   O29     1.770   .     S
Zn25   O26     1.850   .     S
O26    Zn104   1.929   .     S
O26    C32     1.414   .     S
O27    Zn104   1.861   .     S
O27    C33     1.287   .     A
C28    C32     1.442   .     A
C28    C83     1.413   1_565 A
C28    C60     1.533   .     S
O29    C102    1.285   1_455 A
C30    C32     1.439   .     A
C30    H31     1.078   .     S
C30    C81     1.427   1_565 A
C33    C55     1.518   .     S
C33    O90     1.284   1_554 A
Zn34   O38     1.762   .     S
Zn34   O35     1.820   .     S
O35    Zn103   1.922   .     S
O35    C41     1.414   .     S
O36    Zn103   1.868   .     S
O36    C42     1.289   .     A
C37    C41     1.431   .     A
C37    C91     1.415   1_655 A
C37    C78     1.515   .     S
O38    C86     1.269   1_554 A
C39    C41     1.415   .     A
C39    H40     1.080   .     S
C39    C89     1.426   1_655 A
C42    C73     1.516   .     S
C42    O98     1.276   1_545 A
Zn43   O47     1.784   .     S
Zn43   O44     1.787   .     S
O44    Zn105   1.925   .     S
O44    C50     1.396   .     S
O45    Zn105   1.891   .     S
O45    C51     1.291   .     A
C46    C50     1.433   .     A
C46    C99     1.425   1_556 A
C46    C69     1.536   .     S
O47    C94     1.274   1_545 A
C48    C50     1.399   .     A
C48    H49     1.083   .     S
C48    C97     1.410   1_556 A
C51    C64     1.530   .     S
C51    O82     1.268   1_455 A
Zn52   O56     1.797   .     S
Zn52   O53     1.813   .     S
Zn52   O90     1.793   .     S
Zn52   O87     1.816   .     S
O53    Zn106   1.909   .     S
O53    C59     1.400   .     S
O54    Zn106   1.889   .     S
O54    C60     1.291   .     A
C55    C59     1.423   1_554 A
C57    C59     1.403   1_545 A
C57    H58     1.080   .     S
C59    C55     1.423   1_556 A
C59    C57     1.403   1_565 A
Zn61   O65     1.759   .     S
Zn61   O62     1.843   .     S
Zn61   O82     1.765   .     S
Zn61   O79     1.779   .     S
O62    Zn107   1.919   .     S
O62    C68     1.413   .     S
O63    Zn107   1.876   .     S
O63    C69     1.296   .     A
C64    C68     1.446   1_455 A
C66    C68     1.433   1_554 A
C66    H67     1.078   .     S
C68    C64     1.446   1_655 A
C68    C66     1.433   1_556 A
Zn70   O74     1.748   .     S
Zn70   O71     1.803   .     S
Zn70   O98     1.777   .     S
Zn70   O95     1.867   .     S
O71    Zn108   1.914   .     S
O71    C77     1.411   .     S
O72    Zn108   1.868   .     S
O72    C78     1.288   .     A
C73    C77     1.430   1_545 A
C75    C77     1.409   1_455 A
C75    H76     1.078   .     S
C77    C73     1.430   1_565 A
C77    C75     1.409   1_655 A
O79    Zn107   1.911   .     S
O79    C85     1.410   .     S
O80    Zn107   1.884   .     S
O80    C86     1.290   .     A
C81    C85     1.438   .     A
C81    C30     1.427   1_545 A
O82    C51     1.268   1_655 A
C83    C85     1.403   .     A
C83    H84     1.082   .     S
C83    C28     1.413   1_545 A
C86    O38     1.269   1_556 A
O87    Zn106   1.911   .     S
O87    C93     1.399   .     S
O88    Zn106   1.872   .     S
O88    C94     1.286   .     A
C89    C93     1.424   .     A
C89    C39     1.426   1_455 A
O90    C33     1.284   1_556 A
C91    C93     1.404   .     A
C91    H92     1.082   .     S
C91    C37     1.415   1_455 A
C94    O47     1.274   1_565 A
O95    Zn108   1.929   .     S
O95    C101    1.419   .     S
O96    Zn108   1.869   .     S
O96    C102    1.303   .     A
C97    C101    1.442   .     A
C97    C48     1.410   1_554 A
O98    C42     1.276   1_565 A
C99    C101    1.431   .     A
C99    H100    1.082   .     S
C99    C46     1.425   1_554 A
C102   O29     1.285   1_655 A
